*Heading
** Job name: Taylor Model name: Model-1
** Generated by: Abaqus/CAE 6.14-1
*Preprint, echo=NO, model=NO, history=NO, contact=NO
**
** PARTS
**
*Part, name=Part-1
*Node
  1, 2.121990, 0.000000, 2.395230 
  2, 0.000000, 0.000000, 3.200000 
  3, 0.000000, 0.000000, 2.800000 
  4, 2.012790, 0.000000, 2.273120 
  5, 2.121990, 16.000000, 2.395230 
  6, 0.000000, 16.000000, 3.200000 
  7, 0.000000, 16.000000, 2.800000 
  8, 1.968610, 16.000000, 2.230880 
  9, 0.000000, 0.000000, 0.000000 
  10, 2.742860, 0.000000, 0.000000 
  11, 0.000000, 16.000000, 0.000000 
  12, 2.742860, 16.000000, 0.000000 
  13, 3.200000, 0.000000, 0.000000 
  14, 3.200000, 16.000000, 0.000000 
  15, 0.000000, 32.400000, 3.200000 
  16, 0.000000, 32.400000, 2.800000 
  17, 2.121990, 32.400000, 2.395230 
  18, 2.026610, 32.400000, 2.273630 
  19, 0.000000, 32.400000, 0.000000 
  20, 2.742860, 32.400000, 0.000000 
** ... 5720 like lines cut
*Element, type=C3D8T
   1,   81,  674,  869,   80,    1,   22,   31,    4
   2,  674,  675,  870,  869,   22,   23,   30,   31
   3,  675,  676,  871,  870,   23,   24,   29,   30
   4,  676,  677,  872,  871,   24,   25,   28,   29
   5,  677,  678,  873,  872,   25,   26,   27,   28
   6,  678,  159,  158,  873,   26,    2,    3,   27
   7,   82,  679,  874,   79,   81,  674,  869,   80
   8,  679,  680,  875,  874,  674,  675,  870,  869
   9,  680,  681,  876,  875,  675,  676,  871,  870
  10,  681,  682,  877,  876,  676,  677,  872,  871
  11,  682,  683,  878,  877,  677,  678,  873,  872
  12,  683,  160,  157,  878,  678,  159,  158,  873
  13,   83,  684,  879,   78,   82,  679,  874,   79
  14,  684,  685,  880,  879,  679,  680,  875,  874
  15,  685,  686,  881,  880,  680,  681,  876,  875
  16,  686,  687,  882,  881,  681,  682,  877,  876
  17,  687,  688,  883,  882,  682,  683,  878,  877
  18,  688,  161,  156,  883,  683,  160,  157,  878
  19,   84,  689,  884,   77,   83,  684,  879,   78
  20,  689,  690,  885,  884,  684,  685,  880,  879
** ... 4435 like lines cut
*Nset, nset=Set-1, generate
    1,  5740,     1
*Elset, elset=Set-1, generate
    1,  4455,     1
*Elset, elset=Set-angle
     247
** Section: Section-1
*Solid Section, elset=Set-1, material=Steel
,
*End Part
**  
**
** ASSEMBLY
**
*Assembly, name=Assembly
**  
*Instance, name=Part-1-1, part=Part-1
*End Instance
**  
*Nset, nset=Set-7, instance=Part-1-1
    1,    2,    3,    4,    9,   10,   13,   22,   23,   24,   25,   26,   27,   28,   29,   30
   31,  198,  199,  200,  201,  202,  203,  204,  205,  206,  207,  208,  209,  210,  211,  212
  213,  214,  310,  311,  312,  313,  314,  315, 1064, 1065, 1066, 1067, 1068, 1069, 1070, 1071
 1072, 1073, 1074, 1075, 1076, 1077, 1078, 1079, 1080, 1081, 1082, 1083, 1084, 1085, 1086, 1087
 1088, 1089, 1090, 1091, 1092, 1093
*Elset, elset=Set-7, instance=Part-1-1
    1,    2,    3,    4,    5,    6,  241,  242,  243,  244,  245,  246,  247,  248,  249,  250
  251,  252,  253,  254,  255,  256,  257,  258,  259,  260,  261,  262,  263,  264,  265,  266
  267,  268,  269,  270,  271,  272,  273,  274,  275,  276,  277,  278,  279,  280,  281,  282
 1921, 1922, 1923, 1924, 1925, 1926, 1927
*Nset, nset=Set-8, instance=Part-1-1
    2,    3,    6,    7,    9,   11,   15,   16,   19,  120,  121,  122,  123,  124,  125,  126
  127,  128,  129,  130,  131,  132,  133,  134,  135,  136,  137,  138,  139,  140,  141,  142
  143,  144,  145,  146,  147,  148,  149,  150,  151,  152,  153,  154,  155,  156,  157,  158
  159,  160,  161,  162,  163,  164,  165,  166,  167,  168,  169,  170,  171,  172,  173,  174
  175,  176,  177,  178,  179,  180,  181,  182,  183,  184,  185,  186,  187,  188,  189,  190
  191,  192,  193,  194,  195,  196,  197,  198,  199,  200,  201,  202,  203,  215,  216,  217
  218,  219,  220,  271,  272,  273,  274,  275,  276,  277,  278,  279,  280,  281,  282,  283
  284,  285,  286,  287,  288,  289,  290,  291,  292,  293,  294,  295,  296,  297,  298,  299
  300,  301,  302,  303,  304,  305,  306,  307,  308,  309,  361,  362,  363,  364,  365,  366
  367,  368,  369,  370,  371,  372,  373,  374,  375,  376,  377,  378,  379,  380,  381,  382
  383,  384,  385,  386,  387,  388,  389,  390,  391,  392,  393,  394,  395,  396,  397,  398
  399,  400,  401,  402,  403,  404,  405,  406,  407,  408,  409,  410,  411,  412,  413,  414
  415,  416,  417,  418,  419,  420,  421,  422,  423,  424,  425,  426,  427,  428,  429,  430
  431,  432,  433,  434,  435,  436,  437,  438,  439,  440,  531,  532,  533,  534,  535,  536
  537,  538,  539,  540,  541,  542,  543,  544,  545,  546,  547,  548,  549,  550,  551,  552
  553,  554,  555,  556,  557,  558,  559,  560,  561,  562,  563,  564,  565,  566,  567,  568
  569,  570,  571,  572,  573,  574,  575,  576, 1319, 1320, 1321, 1322, 1323, 1324, 1325, 1326
 1327, 1328, 1329, 1330, 1331, 1332, 1333, 1334, 1335, 1336, 1337, 1338, 1339, 1340, 1341, 1342
 1343, 1344, 1345, 1346, 1347, 1348, 1349, 1350, 1351, 1352, 1353, 1354, 1355, 1356, 1357, 1358
 1359, 1360, 1361, 1362, 1363, 1364, 1365, 1366, 1367, 1368, 1369, 1370, 1371, 1372, 1373, 1374
** ... 27 like lines cut
*Elset, elset=Set-8, instance=Part-1-1
    6,   12,   18,   24,   30,   36,   42,   48,   54,   60,   66,   72,   78,   84,   90,   96
  102,  108,  114,  120,  126,  132,  138,  144,  150,  156,  162,  168,  174,  180,  186,  192
  198,  204,  210,  216,  222,  228,  234,  240,  241,  242,  243,  244,  245,  246,  247,  283
  284,  285,  286,  287,  288,  289,  325,  326,  327,  328,  329,  330,  331,  367,  368,  369
  370,  371,  372,  373,  409,  410,  411,  412,  413,  414,  415,  451,  452,  453,  454,  455
  456,  457,  493,  494,  495,  496,  497,  498,  499,  535,  536,  537,  538,  539,  540,  541
  577,  578,  579,  580,  581,  582,  583,  619,  620,  621,  622,  623,  624,  625,  661,  662
  663,  664,  665,  666,  667,  703,  704,  705,  706,  707,  708,  709,  745,  746,  747,  748
  749,  750,  751,  787,  788,  789,  790,  791,  792,  793,  829,  830,  831,  832,  833,  834
  835,  871,  872,  873,  874,  875,  876,  877,  913,  914,  915,  916,  917,  918,  919,  955
  956,  957,  958,  959,  960,  961,  997,  998,  999, 1000, 1001, 1002, 1003, 1039, 1040, 1041
 1042, 1043, 1044, 1045, 1081, 1082, 1083, 1084, 1085, 1086, 1087, 1123, 1124, 1125, 1126, 1127
 1128, 1129, 1165, 1166, 1167, 1168, 1169, 1170, 1171, 1207, 1208, 1209, 1210, 1211, 1212, 1213
 1249, 1250, 1251, 1252, 1253, 1254, 1255, 1291, 1292, 1293, 1294, 1295, 1296, 1297, 1333, 1334
 1335, 1336, 1337, 1338, 1339, 1375, 1376, 1377, 1378, 1379, 1380, 1381, 1417, 1418, 1419, 1420
 1421, 1422, 1423, 1459, 1460, 1461, 1462, 1463, 1464, 1465, 1501, 1502, 1503, 1504, 1505, 1506
 1507, 1543, 1544, 1545, 1546, 1547, 1548, 1549, 1585, 1586, 1587, 1588, 1589, 1590, 1591, 1627
 1628, 1629, 1630, 1631, 1632, 1633, 1669, 1670, 1671, 1672, 1673, 1674, 1675, 1711, 1712, 1713
 1714, 1715, 1716, 1717, 1753, 1754, 1755, 1756, 1757, 1758, 1759, 1795, 1796, 1797, 1798, 1799
 1800, 1801, 1837, 1838, 1839, 1840, 1841, 1842, 1843, 1879, 1880, 1881, 1882, 1883, 1884, 1885
** ... 21 like lines cut
*Nset, nset=Set-9, instance=Part-1-1
    9,   10,   11,   12,   13,   14,   19,   20,   21,  204,  205,  206,  207,  208,  221,  222
  223,  224,  225,  232,  233,  234,  235,  236,  237,  238,  239,  240,  241,  242,  243,  244
  245,  246,  247,  248,  249,  250,  251,  252,  253,  254,  255,  256,  257,  258,  259,  260
  261,  262,  263,  264,  265,  266,  267,  268,  269,  270,  271,  272,  273,  274,  275,  276
  277,  278,  279,  280,  281,  282,  283,  284,  285,  286,  287,  288,  289,  290,  291,  292
  293,  294,  295,  296,  297,  298,  299,  300,  301,  302,  303,  304,  305,  306,  307,  308
  309,  322,  323,  324,  325,  326,  327,  328,  329,  330,  331,  332,  333,  334,  335,  336
  337,  338,  339,  340,  341,  342,  343,  344,  345,  346,  347,  348,  349,  350,  351,  352
  353,  354,  355,  356,  357,  358,  359,  360,  537,  538,  539,  540,  541,  542,  543,  544
  545,  546,  547,  548,  549,  550,  551,  552,  553,  554,  555,  556,  557,  558,  559,  560
  561,  562,  563,  564,  565,  566,  567,  568,  569,  570,  571,  572,  573,  574,  575,  576
  583,  584,  585,  586,  587,  588,  589,  590,  591,  592,  593,  594,  595,  596,  597,  598
  599,  600,  601,  602,  603,  604,  605,  606,  607,  608,  609,  610,  611,  612,  613,  614
  615,  616,  617,  618,  619,  620,  621,  622,  623,  624,  625,  626,  627,  634,  635,  636
  637,  638,  639,  640,  641,  642,  643,  644,  645,  646,  647,  648,  649,  650,  651,  652
  653,  654,  655,  656,  657,  658,  659,  660,  661,  662,  663,  664,  665,  666,  667,  668
  669,  670,  671,  672,  673, 1124, 1125, 1126, 1127, 1128, 1129, 1130, 1131, 1132, 1133, 1134
 1135, 1136, 1137, 1138, 1139, 1140, 1141, 1142, 1143, 1144, 1145, 1146, 1147, 1148, 1149, 1150
 1151, 1152, 1153, 1154, 1155, 1156, 1157, 1158, 1159, 1160, 1161, 1162, 1163, 1164, 1165, 1166
 1167, 1168, 1169, 1170, 1171, 1172, 1173, 1174, 1175, 1176, 1177, 1178, 1179, 1180, 1181, 1182
** ... 21 like lines cut
*Elset, elset=Set-9, instance=Part-1-1
 247
*Nset, nset=Set-10, instance=Part-1-1
2, 19
*End Assembly
*Amplitude, name=Amp-1
             0.,              0.,           0.001,              1.
** 
** MATERIALS
** 
*Material, name=Steel
*Conductivity
34.0,
*Density
7.83e-09,
*Elastic
206000., 0.3
*Expansion
1.23e-05,
*Inelastic Heat Fraction
0.9,
*Plastic, hardening=JOHNSON COOK
806.,  614., 0.168,   1.1, 1540.,  20.
*Rate Dependent, type=JOHNSON COOK
 0.0089,1.
*Specific Heat
4.6e+08,
** 
** PREDEFINED FIELDS
** 
** Name: Predefined Field-1   Type: Velocity
*Initial Conditions, type=VELOCITY
Part-1-1.Set-1, 1, 0.
Part-1-1.Set-1, 2, -287000.
Part-1-1.Set-1, 3, 0.
*Initial Conditions, type=TEMPERATURE
Part-1-1.Set-1, 20.
** ----------------------------------------------------------------
** 
** STEP: Step-1
** 
*Step, name=Step-1, nlgeom=YES
*Dynamic Temperature-displacement, Explicit
, 8e-05
*Bulk Viscosity
0.06, 1.2
** 
** BOUNDARY CONDITIONS
** 
** Name: BC-1 Type: Displacement/Rotation
*Boundary
Set-7, 2, 2
** Name: BC-2 Type: Symmetry/Antisymmetry/Encastre
*Boundary
Set-8, XSYMM
** Name: BC-3 Type: Symmetry/Antisymmetry/Encastre
*Boundary
Set-9, ZSYMM
** 
** OUTPUT REQUESTS
** 
*Restart, write, number interval=1, time marks=NO
** 
** FIELD OUTPUT: F-Output-1
** 
*Output, field, number interval=20
*Node Output
A, RF, U, V
*Element Output, directions=YES
ER, ERV, EVF, LE, PE, PEEQ, PEEQVAVG, PEVAVG, S, SVAVG, TEMP
*Contact Output
CSTRESS, 
** 
** HISTORY OUTPUT: H-Output-1
** 
*Output, history, variable=PRESELECT
** 
** HISTORY OUTPUT: H-Output-2
** 
*Output, history, time interval=1e-07
*Element Output, elset=Set-9
MISES, PEEQ, TEMP, DENSITY
*Node Output, nset=Set-10
U, COORD
*Energy output
ALLKE
*Incrementation Output
DT
*End Step
