*Heading
** Job name: Taylor Model name: Model-1
** Generated by: Abaqus/CAE 6.14-1
*Preprint, echo=NO, model=NO, history=NO, contact=NO
**
** PARTS
**
*Part, name=Cylinder
*Node
1, 0.000000, 0.000000
2, 0.640000, 0.000000
3, 1.280000, 0.000000
4, 1.920000, 0.000000
5, 2.560000, 0.000000
6, 3.200000, 0.000000
7, 0.000000, 0.648000
8, 0.640000, 0.648000
9, 1.280000, 0.648000
10, 1.920000, 0.648000
11, 2.560000, 0.648000
12, 3.200000, 0.648000
13, 0.000000, 1.296000
14, 0.640000, 1.296000
15, 1.280000, 1.296000
16, 1.920000, 1.296000
17, 2.560000, 1.296000
18, 3.200000, 1.296000
19, 0.000000, 1.944000
20, 0.640000, 1.944000
** ... 286 like lines cut
*Element, type=CAX4RT
  1,   1,   2,   8,   7
  2,   2,   3,   9,   8
  3,   3,   4,  10,   9
  4,   4,   5,  11,  10
  5,   5,   6,  12,  11
  6,   7,   8,  14,  13
  7,   8,   9,  15,  14
  8,   9,  10,  16,  15
  9,  10,  11,  17,  16
 10,  11,  12,  18,  17
 11,  13,  14,  20,  19
 12,  14,  15,  21,  20
 13,  15,  16,  22,  21
 14,  16,  17,  23,  22
 15,  17,  18,  24,  23
 16,  19,  20,  26,  25
 17,  20,  21,  27,  26
 18,  21,  22,  28,  27
 19,  22,  23,  29,  28
 20,  23,  24,  30,  29
** ... 230 like lines cut
*Nset, nset=Set-1, generate
   1,  306,    1
*Elset, elset=Set-1, generate
   1,  250,    1
** Section: Section-1
*Solid Section, elset=Set-1, material=Steel
,
*End Part
**  
**
** ASSEMBLY
**
*Assembly, name=Assembly
**  
*Instance, name=Cylinder-1, part=Cylinder
*End Instance
**  
*Nset, nset=Set-2, instance=Cylinder-1, generate
 1,  6,  1
*Elset, elset=Set-2, instance=Cylinder-1, generate
 1,  5,  1
*Nset, nset=Set-3, instance=Cylinder-1, generate
 301,  306,    1
*Elset, elset=Set-3, instance=Cylinder-1, generate
 246,  250,    1
*Nset, nset=Set-4, instance=Cylinder-1, generate
   1,  301,    6
*Elset, elset=Set-4, instance=Cylinder-1, generate
   1,  246,    5
*Nset, nset=Set-5, instance=Cylinder-1, generate
 1,  6,  1
*Elset, elset=Set-5, instance=Cylinder-1, generate
 1,  5,  1
*Nset, nset=Set-6, instance=Cylinder-1, generate
   1,  306,    1
*Elset, elset=Set-6, instance=Cylinder-1, generate
   1,  250,    1
*End Assembly
*Amplitude, name=Amp-1
             0.,              0.,           0.001,              1.
** 
** MATERIALS
** 
*Material, name=Steel
*Conductivity
34.0,
*Density
7.83e-09,
*Inelastic Heat Fraction
0.9,
*Elastic
206000, 0.3
*Plastic, hardening=USER, properties=8
806, 614, 0.168, 0.0089, 1.1, 1.0, 20.0, 1540
*Specific Heat
4.6e+08,
** 
** PREDEFINED FIELDS
** 
** Name: Predefined Field-1   Type: Velocity
*Initial Conditions, type=TEMPERATURE
Set-6, 20.
*Initial Conditions, type=VELOCITY
Set-6, 1, 0.
Set-6, 2, -287000.
** ----------------------------------------------------------------
** 
** STEP: Step-1
** 
*Step, name=Step-1, nlgeom=YES
*Dynamic Temperature-displacement, Explicit
, 8e-05
*Bulk Viscosity
0.06, 1.2
** 
** BOUNDARY CONDITIONS
** 
** Name: BC-1 Type: Displacement/Rotation
*Boundary
Set-4, 1, 1
Set-4, 6, 6
** Name: BC-2 Type: Displacement/Rotation
*Boundary
Set-5, 2, 2
** 
** OUTPUT REQUESTS
** 
*Restart, write, number interval=1, time marks=NO
** 
** FIELD OUTPUT: F-Output-1
** 
*Output, field
*Node Output
A, RF, U, V
*Element Output, directions=YES
ER, ERV, EVF, LE, PE, PEEQ, PEEQVAVG, PEVAVG, S, SVAVG, TEMP
*Contact Output
CSTRESS, 
** 
** HISTORY OUTPUT: H-Output-1
** 
*Output, history, variable=PRESELECT
** 
** HISTORY OUTPUT: H-Output-2
** 
*Output, history, time interval=8e-07
*Element Output, elset=Cylinder-1.Set-1
MISES, PEEQ, TEMP
*Node Output, nset=Cylinder-1.Set-1
U, COORD
*Energy output
ALLKE
*Incrementation Output
DT
*End Step
